LAMMPS (3 Nov 2022)
###############################
# LAMMPS INPUT SCRIPT
# Uniaxial compress loading of single crystal aluminum
# Mark Tschopp
# Syntax, lmp_exe < calc_fcc.in

###############################
# INITIALIZATION
clear
units metal
dimension 3
boundary p p p
atom_style atomic
variable latparam equal 4.05

###############################
# Atom definition
lattice     fcc 4.05
Lattice spacing in x,y,z = 4.05 4.05 4.05
region      whole block 0 10 0 10 0 10
create_box  1 whole
Created orthogonal box = (0 0 0) to (40.5 40.5 40.5)

region      upper block INF INF INF INF INF INF units box

lattice     fcc 4.05 orient x 1 0 0 orient y 0 1 0 orient z 0 0 1
Lattice spacing in x,y,z = 4.05 4.05 4.05
create_atoms 1 region upper
Created 4000 atoms

###############################
# Define interatomic potential
pair_style eam/alloy
pair_coeff * * Al99.eam.alloy Al

###############################
# DEfine computes
compute csym all centro/atom fcc
compute peratom all pe/atom

###############################
# Equilibration
reset_timestep 0
timestep 0.001
velocity all create 300 12345 mom yes rot no
fix 1 all npt temp 300 300 1 iso 0 0 1 drag 1

# Set thermo output
thermo 1000
thermo_style custom step lx ly lz press pxx pyy pzz pe temp

# Run for at least 10 picosecond (assuming 1 fs timestep)
run 20000
Step           Lx             Ly             Lz           Press           Pxx            Pyy            Pzz           PotEng          Temp
0   40.5           40.5           40.5           2496.1233      2446.9902      2534.6541      2506.7256     -13440          300
Averages over the last 11 of 21 rows, steps 10000 to 20000:
Lx Ly Lz Press Pxx Pyy Pzz PotEng Temp
40.6407 40.6407 40.6407 -36.971 -18.0852 -61.6579 -31.17 -13294 284.379
Loop time of 114.914 on 1 procs for 20000 steps with 4000 atoms

unfix 1

# store final cell length for strain calculations
variable tmp equal "lx"
variable L0 equal 40.6501497913444
Initial Length, L0: 40.6501497913444

###############################
# Deformation
reset_timestep 0

fix         1 all npt temp 300 300 1 y 0 0 1 z 0 0 1 drag 1
variable srate equal 1.0e10
variable srate1 equal "v_srate / 1.0e12"
fix         2 all deform 1 x erate 0.01 units box remap x

# Output strain and stress info to file
# for units metal, pressure is in [bars] = 100 [kPa] = 1/10000 [GPa]
# p2, p3, p4 are in GPa
variable strain equal "(lx - v_L0)/v_L0"
variable p1 equal "v_strain"
variable p2 equal "-pxx/10000"
variable p3 equal "-pyy/10000"
variable p4 equal "-pzz/10000"

# Use cfg for AtomEye
#dump    1 all cfg 250 dump.tensile_*.cfg mass type xs ys zs c_csym c_peratom fx fy fz
#dump_modify 1 element Al

dump 2 all atom 500 dump.lammpstrj

dump 3 all movie 500 movie.mpg type type zoom 1.6 adiam 1.5
dump_modify 3 pad 5

# Display thermo
thermo 1000
thermo_style custom step v_strain temp v_p2 v_p3 v_p4 ke pe press

run 20000
Step        v_strain         Temp           v_p2           v_p3           v_p4          KinEng         PotEng         Press
0  -5.2438385e-16  301.79878      0.0065442047   0.011276929    0.018429685    156.00321     -13286.614     -120.83606
Averages over the last 11 of 21 rows, steps 10000 to 20000:
v_strain Temp v_p2 v_p3 v_p4 KinEng PotEng Press
0.15 346.259 4.54979 0.0251262 0.0267659 178.985 -13063.8 -15339
Loop time of 130.497 on 1 procs for 20000 steps with 4000 atoms

print "All done!"
All done!
